<div id="pf8e" class="pf w0 h0" data-page-no="8e"><div class="pc pc8e w0 h0"><img class="bi x11a y297 w23 h2a" alt="" src="bg8e.png"/><div class="c x1 y1 w0 h2"><div class="t m0 x2 h3 y2 ff1 fs0 fc0 sc0 ls0 ws0"> </div><div class="t m0 x2 h4 y3 ff2 fs1 fc0 sc0 lsc ws0">126<span class="ls2">                             <span class="fc1 ls3">FAT GAS, ©201<span class="ls0">8<span class="ls2"> MATT<span class="_ _0"></span> CHAN<span class="_ _0"></span>NON</span></span></span>                      <A HREF="index.html#pf3"ToC</A><span class="ff1 ls0"> </span></span></div><div class="t m0 x2 h5 yec ff2 fs2 fc0 sc0 ls63 ws0">What<span class="_ _1"></span> <span class="_ _6"></span>thi<span class="_ _1"></span>s <span class="_ _6"></span>mean<span class="_ _1"></span>s <span class="_ _6"></span>is <span class="_ _df"></span>that<span class="_ _1"></span> <span class="_ _6"></span>warm <span class="_ _df"></span>dry <span class="_ _6"></span>air<span class="_ _1"></span> <span class="_ _6"></span>is <span class="_ _6"></span>a <span class="_ _6"></span>fa<span class="_ _1"></span>r <span class="_ _6"></span>bet<span class="_ _1"></span>te<span class="_ _1"></span><span class="ls1e">r <span class="_ _6"> </span>re<span class="_ _0"></span>source <span class="_ _2"> </span>for <span class="_ _2"> </span>water </span></div><div class="t m0 x3 h5 yee ff2 fs2 fc0 sc0 ls1c ws0">extraction than cool wet air.  It m<span class="_ _0"></span>ight fight harder to hold onto w<span class="_ _0"></span>hat it has, but </div><div class="t m0 x3 h5 y9e ff2 fs2 fc0 sc0 ls1c ws0">at least it<span class="_ _1"></span> has it.<span class="ls0"> </span></div><div class="t m0 x2 h5 yef ff2 fs2 fc0 sc0 ls0 ws0"> </div><div class="t m0 x2 h5 y2b ff2 fs2 fc0 sc0 ls0 ws0"> </div></div><div class="c x4a y1 w8 h2"><div class="t m0 x4b h7 y298 ff2 fs0 fc0 sc0 ls0 ws0"> </div></div><div class="c x4c y1 w9 h2"><div class="t m0 x4b h7 y298 ff2 fs0 fc0 sc0 ls0 ws0"> </div></div><div class="c x4d y1 wa h2"><div class="t m0 x4e h7 ya9 ff2 fs0 fc0 sc0 ls0 ws0"> </div></div><div class="c x1 y1 w0 h2"><div class="t m0 x188 h11 y299 ff7 fs8 fc0 sc0 ls2a ws0">THE CUSHION EFFECT OF SEAWATER<span class="ls0">:<span class="lsd7"> WHY<span class="_ _0"></span> </span></span></div><div class="t m0 x189 h11 y228 ff7 fs8 fc0 sc0 ls1b5 ws0">DON’T FAT PEOPLE LI<span class="_ _1"></span>VE ON ANGRY </div><div class="t m0 x24 h11 y29a ff7 fs8 fc0 sc0 ls13f ws0">COASTS?<span class="ls0"> </span></div><div class="t m0 x2 h5 y1a9 ff2 fs2 fc0 sc0 ls0 ws0"> </div><div class="t m0 x2 h5 y29b ff2 fs2 fc0 sc0 ls1e ws0">If <span class="_ _0"></span>you <span class="_ _0"></span>travel <span class="_ _0"></span>a <span class="_ _0"></span>lot, <span class="_ _0"></span>you <span class="_ _0"></span>s<span class="_ _0"></span>tart to<span class="_ _0"></span> <span class="_ _0"></span>see <span class="_ _0"></span>how <span class="_ _0"></span><span class="ls6">people <span class="_ _0"></span>differ from <span class="_ _0"></span>place <span class="_ _0"></span>to place.  </span></div><div class="t m0 x3 h5 yf3 ff2 fs2 fc0 sc0 ls5b ws0">Morb<span class="_ _1"></span>idl<span class="_ _1"></span>y obese<span class="_ _1"></span> people<span class="_ _1"></span> tend to liv<span class="_ _1"></span>e in red stat<span class="_ _e0"></span>es, and 1950’<span class="_ _1"></span>s<span class="ls0">-<span class="ls9">standard, w<span class="_ _0"></span>aifish </span></span></div><div class="t m0 x3 h5 y233 ff2 fs2 fc0 sc0 ls6 ws0">people live <span class="_ _0"></span>in blue <span class="_ _0"></span>state areas. <span class="_ _0"></span> <span class="_ _0"></span>There are <span class="_ _0"></span>naturally exceptions, but <span class="_ _0"></span>if you <span class="_ _0"></span>visit </div><div class="t m0 x3 h5 y29c ff2 fs2 fc0 sc0 ls1c ws0">coastal <span class="_ _0"></span>parts of <span class="_ _0"></span>C<span class="_ _0"></span>alifornia or <span class="_ _0"></span>coastal <span class="_ _0"></span>spots <span class="_ _0"></span>on <span class="_ _0"></span>the <span class="_ _0"></span>east <span class="_ _0"></span>c<span class="ls6">oast, <span class="_ _0"></span>people tend <span class="_ _0"></span>to <span class="_ _0"></span>be </span></div><div class="t m0 x3 h5 y215 ff2 fs2 fc0 sc0 ls7 ws0">thinner.<span class="ls0"> </span></div><div class="t m0 x2 h5 y21e ff2 fs2 fc0 sc0 ls0 ws0"> </div><div class="t m0 x2 h5 y29d ff2 fs2 fc0 sc0 ls63 ws0">Why  i<span class="_ _1"></span>s  t<span class="_ _1"></span>hat<span class="_ _1"></span>?    B<span class="_ _1"></span>eli<span class="_ _1"></span>eve<span class="_ _1"></span>  it<span class="_ _1"></span>  or<span class="_ _1"></span>  not<span class="_ _1"></span>,  t<span class="_ _1"></span>he <span class="_ _e2"> </span>leadi<span class="_ _e0"></span>ng  rea<span class="_ _1"></span>son<span class="_ _1"></span>  may <span class="_ _e2"> </span>simpl<span class="_ _1"></span>y  be<span class="_ _1"></span> </div><div class="t m0 x3 h5 y1ac ff2 fs2 fc0 sc0 ls6 ws0">genetics.  Asians tend <span class="_ _0"></span>to be the <span class="_ _0"></span>slimmest Americans, and this is <span class="_ _0"></span>where they’re </div><div class="t m0 x3 h5 y29e ff2 fs2 fc0 sc0 ls27 ws0">most highl<span class="_ _1"></span>y <span class="_ _0"></span>conce<span class="_ _1"></span>ntra<span class="_ _1"></span>ted.<span class="_ _1"></span> <span class="_ _0"></span> <span class="_ _0"></span>Black<span class="_ _1"></span>s <span class="_ _0"></span>ten<span class="_ _1"></span>d <span class="_ _0"></span>to be <span class="_ _0"></span>the heavies<span class="_ _1"></span>t, and <span class="_ _0"></span>they<span class="_ _1"></span> <span class="_ _0"></span>tend to <span class="_ _0"></span>b<span class="ls1c">e </span></div><div class="t m0 x3 h5 y29f ff2 fs2 fc0 sc0 ls6 ws0">underrepresented <span class="_ _1"></span>closer to t<span class="_ _1"></span>he coast.<span class="ls0"> </span></div><div class="t m0 x2 h5 y2a0 ff2 fs2 fc0 sc0 ls0 ws0"> </div><div class="t m0 x2 h5 y110 ff2 fs2 fc0 sc0 ls20 ws0">But <span class="_ _ee"> </span>what <span class="_ _e6"> </span>if <span class="_ _ee"> </span>it’s <span class="_ _e6"> </span>not <span class="_ _ee"> </span>so <span class="_ _ee"> </span>much <span class="_ _ee"> </span>that <span class="_ _e6"> </span>the <span class="_ _ee"> </span>charact<span class="_ _1"></span>erist<span class="_ _1"></span>ics <span class="_ _ee"> </span>of <span class="_ _e6"> </span>your <span class="_ _ee"> </span>race </div><div class="t m0 x3 h5 y2a1 ff2 fs2 fc0 sc0 ls6 ws0">determine <span class="_ _de"> </span>how <span class="_ _de"> </span>portly <span class="_ _de"> </span>you <span class="_ _e1"> </span>are, <span class="_ _de"> </span>but <span class="_ _de"> </span>that <span class="_ _de"> </span>these <span class="_ _de"> </span>are <span class="_ _de"> </span>correlations <span class="_ _de"> </span>from <span class="_ _de"> </span>a <span class="_ _e1"> </span>third </div><div class="t m0 x3 h5 y238 ff2 fs2 fc0 sc0 ls1c ws0">cause?  <span class="_ _0"></span>Maybe <span class="_ _0"></span>Asians at <span class="_ _0"></span>large (or <span class="_ _0"></span>maybe <span class="_ _0"></span>I should <span class="_ _0"></span>say at <span class="_ _0"></span>small) just happe<span class="_ _0"></span><span class="ls6">n to </span></div><div class="t m0 x3 h5 y141 ff2 fs2 fc0 sc0 ls6 ws0">be thinner a<span class="_ _1"></span>s a group because <span class="_ _1"></span>they’re coast<span class="_ _1"></span>al people.<span class="ls0"> </span></div><div class="t m0 x2 h5 y2a2 ff2 fs2 fc0 sc0 ls0 ws0"> </div></div></div><div class="pi" data-data='{"ctm":[2.000000,0.000000,0.000000,2.000000,0.000000,0.000000]}'></div></div>
