<div id="pf8e" class="pf w0 h0" data-page-no="8e"><div class="pc pc8e w0 h0"><img class="bi x11a y297 w23 h2a" alt="" src="bg8e.png"/><div class="c x1 y1 w0 h2"><div class="t m0 x2 h3 y2 ff1 fs0 fc0 sc0 ls0 ws0"> </div><div class="t m0 x2 h4 y3 ff2 fs1 fc0 sc0 lsc ws0">126<span class="ls2">                             <span class="fc1 ls3">FAT GAS, ©201<span class="ls0">8<span class="ls2"> MATT<span class="_ _0"></span> CHAN<span class="_ _0"></span>NON</span></span></span>                  <A HREF="index.html#pf3">ToC</A><span class="ff1 ls0"> </span></span></div><div class="t m0 x2 h5 yec ff2 fs2 fc0 sc0 ls77 ws0">What<span class="_ _1"></span> <span class="_ _6"></span>thi<span class="_ _1"></span>s <span class="_ _6"></span>mean<span class="_ _1"></span>s <span class="_ _6"></span>is <span class="_ _e0"></span>that<span class="_ _1"></span> <span class="_ _6"></span>warm <span class="_ _e0"></span>dry <span class="_ _6"></span>air<span class="_ _1"></span> <span class="_ _6"></span>is <span class="_ _6"></span>a <span class="_ _6"></span>fa<span class="_ _1"></span>r <span class="_ _6"></span>bet<span class="_ _1"></span>ter<span class="_ _1"></span> <span class="_ _6"></span>res<span class="_ _1"></span>ourc<span class="_ _1"></span>e <span class="_ _6"></span>for<span class="_ _e1"></span> <span class="_ _2"> </span>wate<span class="_ _1"></span>r </div><div class="t m0 x3 h5 yee ff2 fs2 fc0 sc0 ls2d ws0">extraction than cool wet air.  It m<span class="_ _0"></span>ight fight harder to hold onto w<span class="_ _0"></span>hat it has, but </div><div class="t m0 x3 h5 y9e ff2 fs2 fc0 sc0 ls2d ws0">at least it<span class="_ _1"></span> has it.<span class="ls0"> </span></div><div class="t m0 x2 h5 yef ff2 fs2 fc0 sc0 ls0 ws0"> </div><div class="t m0 x2 h5 y2b ff2 fs2 fc0 sc0 ls0 ws0"> </div></div><div class="c x4a y1 w8 h2"><div class="t m0 x4b h7 y298 ff2 fs0 fc0 sc0 ls0 ws0"> </div></div><div class="c x4c y1 w9 h2"><div class="t m0 x4b h7 y298 ff2 fs0 fc0 sc0 ls0 ws0"> </div></div><div class="c x4d y1 wa h2"><div class="t m0 x4e h7 ya9 ff2 fs0 fc0 sc0 ls0 ws0"> </div></div><div class="c x1 y1 w0 h2"><div class="t m0 x188 h11 y299 ff7 fs8 fc0 sc0 ls2a ws0">THE CUSHION EFFECT OF SEAWATER<span class="ls0">:<span class="lsda"> WHY<span class="_ _0"></span> </span></span></div><div class="t m0 x189 h11 y228 ff7 fs8 fc0 sc0 ls1bc ws0">DON’T FAT PEOPLE <span class="ls142">LI<span class="_ _1"></span>VE ON ANGRY </span></div><div class="t m0 x24 h11 y29a ff7 fs8 fc0 sc0 ls142 ws0">COASTS?<span class="ls0"> </span></div><div class="t m0 x2 h5 y1a9 ff2 fs2 fc0 sc0 ls0 ws0"> </div><div class="t m0 x2 h5 y29b ff2 fs2 fc0 sc0 ls1d ws0">If <span class="_ _0"></span>you <span class="_ _0"></span>travel <span class="_ _0"></span>a <span class="_ _0"></span>lot, <span class="_ _0"></span>you <span class="_ _0"></span>s<span class="_ _0"></span>tart to<span class="_ _0"></span> <span class="_ _0"></span>see <span class="_ _0"></span>how <span class="_ _0"></span>peop<span class="_ _0"></span>le <span class="_ _0"></span>differ <span class="_ _0"></span>from <span class="_ _0"></span>place <span class="_ _0"></span>to <span class="_ _0"></span>p<span class="_ _0"></span>lace.  </div><div class="t m0 x3 h5 yf3 ff2 fs2 fc0 sc0 ls5d ws0">Morb<span class="_ _1"></span>idl<span class="_ _1"></span>y obese<span class="_ _1"></span> people<span class="_ _1"></span> tend to liv<span class="_ _1"></span>e in red stat<span class="_ _e1"></span>es, and 1950’<span class="_ _1"></span>s<span class="ls0">-<span class="ls9">standard, w<span class="_ _0"></span>aifish </span></span></div><div class="t m0 x3 h5 y233 ff2 fs2 fc0 sc0 ls6 ws0">people live <span class="_ _0"></span>in blue <span class="_ _0"></span>state areas. <span class="_ _0"></span> <span class="_ _0"></span>There are <span class="_ _0"></span>naturally exceptions, but <span class="_ _0"></span>if you<span class="ls1e9"> vi<span class="_ _e1"></span>si<span class="_ _e1"></span>t </span></div><div class="t m0 x3 h5 y29c ff2 fs2 fc0 sc0 ls2d ws0">coastal <span class="_ _0"></span>parts of <span class="_ _0"></span>C<span class="_ _0"></span>alifornia or <span class="_ _0"></span>coastal <span class="_ _0"></span>spots <span class="_ _0"></span>on <span class="_ _0"></span>the <span class="_ _0"></span>east <span class="_ _0"></span>coast, <span class="_ _0"></span>people <span class="_ _0"></span>tend <span class="_ _0"></span>to <span class="_ _0"></span>be </div><div class="t m0 x3 h5 y215 ff2 fs2 fc0 sc0 ls7 ws0">thinner.<span class="ls0"> </span></div><div class="t m0 x2 h5 y21e ff2 fs2 fc0 sc0 ls0 ws0"> </div><div class="t m0 x2 h5 y29d ff2 fs2 fc0 sc0 ls77 ws0">Why  i<span class="_ _1"></span>s  t<span class="_ _1"></span>hat<span class="_ _1"></span>?    B<span class="_ _1"></span>eli<span class="_ _1"></span>eve<span class="_ _1"></span>  it<span class="_ _1"></span>  or<span class="_ _1"></span>  not<span class="_ _1"></span>,  t<span class="_ _1"></span>he <span class="_ _e4"> </span>lead<span class="_ _1"></span>ing<span class="_ _1"></span>  rea<span class="_ _1"></span>son<span class="_ _1"></span>  may<span class="_ _1"></span>  sim<span class="_ _1"></span>ply<span class="_ _1"></span>  be </div><div class="t m0 x3 h5 y1ac ff2 fs2 fc0 sc0 ls6 ws0">genetics.  Asians tend <span class="_ _0"></span>to be the <span class="_ _0"></span>slimmest Americans, and this is <span class="_ _0"></span>where they’re </div><div class="t m0 x3 h5 y29e ff2 fs2 fc0 sc0 ls22 ws0">most highl<span class="_ _1"></span>y <span class="_ _0"></span><span class="ls2d">concentrated. <span class="_ _0"></span> <span class="_ _0"></span>Blacks <span class="_ _0"></span>tend <span class="_ _0"></span>to <span class="_ _e0"></span>be the <span class="_ _e0"></span>heaviest<span class="_ _1"></span>, <span class="_ _0"></span>and <span class="_ _0"></span>they <span class="_ _e0"></span>t<span class="_ _1"></span>end <span class="_ _0"></span>to <span class="_ _0"></span>be </span></div><div class="t m0 x3 h5 y29f ff2 fs2 fc0 sc0 ls6 ws0">underrepresented <span class="_ _1"></span>closer to t<span class="_ _1"></span>he coast.<span class="ls0"> </span></div><div class="t m0 x2 h5 y2a0 ff2 fs2 fc0 sc0 ls0 ws0"> </div><div class="t m0 x2 h5 y110 ff2 fs2 fc0 sc0 ls20 ws0">But <span class="_ _e7"> </span>what <span class="_ _e9"> </span>if <span class="_ _e7"> </span>it’s <span class="_ _e9"> </span>not <span class="_ _e7"> </span>so <span class="_ _e7"> </span>much <span class="_ _e7"> </span>that <span class="_ _e9"> </span>the <span class="_ _e7"> </span>charact<span class="_ _1"></span>erist<span class="_ _1"></span>ics <span class="_ _e7"> </span>of <span class="_ _e9"> </span>your <span class="_ _e7"> </span>race </div><div class="t m0 x3 h5 y2a1 ff2 fs2 fc0 sc0 ls6 ws0">determine <span class="_ _e2"> </span>how <span class="_ _e2"> </span>portly <span class="_ _e2"> </span>you <span class="_ _e2"> </span>are, <span class="_ _e2"> </span>but <span class="_ _e3"> </span>that <span class="_ _e2"> </span>these <span class="_ _e2"> </span>are <span class="_ _e2"> </span>correlations <span class="_ _3"> </span>from <span class="_ _e3"> </span>a <span class="_ _e2"> </span>third </div><div class="t m0 x3 h5 y238 ff2 fs2 fc0 sc0 ls2d ws0">cause?  <span class="_ _0"></span><span class="ls5d">Maybe<span class="_ _1"></span> Asia<span class="_ _1"></span>ns at<span class="_ _1"></span> larg<span class="_ _1"></span>e (or<span class="_ _1"></span> maybe<span class="_ _1"></span> I shoul<span class="_ _e1"></span>d say at sma<span class="_ _1"></span>ll<span class="_ _1"></span>) jus<span class="_ _1"></span>t hap<span class="_ _1"></span>pen to<span class="_ _1"></span> </span></div><div class="t m0 x3 h5 y141 ff2 fs2 fc0 sc0 ls6 ws0">be thinner a<span class="_ _1"></span>s a group because <span class="_ _1"></span>they’re coast<span class="_ _1"></span>al people.<span class="ls0"> </span></div><div class="t m0 x2 h5 y2a2 ff2 fs2 fc0 sc0 ls0 ws0"> </div></div></div><div class="pi" data-data='{"ctm":[2.000000,0.000000,0.000000,2.000000,0.000000,0.000000]}'></div></div>
