<div id="pf5" class="pf w0 h0" data-page-no="5"><div class="pc pc5 w0 h0"><div class="c x1 y1 w0 h2"><div class="t m0 x6 h3 y2 ff1 fs0 fc0 sc0 ls0 ws0"> </div><div class="t m0 x17 h4 y3 ff2 fs1 fc1 sc0 ls3 ws0">FAT GAS, ©2018 MATT CHANNON<span class="fc0 ls2">                                         <span class="ls0">v<span class="ff1"> </span></span></span></div><div class="t m0 x8 h8 y54 ff3 fs0 fc0 sc0 ls0 ws0"> IV. CO</div><div class="t m0 xa ha y55 ff3 fs3 fc0 sc0 ls0 ws0">2</div><div class="t m0 x18 h8 y54 ff3 fs0 fc0 sc0 ls0 ws0"> AND WATER <span class="_ _3d"> </span>113<span class="ff2"> </span></div><div class="t m0 x8 h7 y56 ff1 fs1 fc0 sc0 lsf ws0">YOU DON’T GET <span class="_ _1"></span>WATER<span class="ls0"> <span class="_ _3e"> </span><span class="ls12">115</span><span class="ff2 fs0"> </span></span></div><div class="t m0 x8 h9 y57 ff1 fs1 fc0 sc0 lse ws0">THE CUSHION EFFECT OF <span class="_ _1"></span>SEAW<span class="lsf">ATER: WHY DON’T FAT </span></div><div class="t m0 x2 h7 y58 ff1 fs1 fc0 sc0 ls10 ws0">PEOPLE LIVE ON ANGRY COASTS?<span class="ls0"> <span class="_ _3f"> </span><span class="ls12">116</span><span class="ff2 fs0"> </span></span></div><div class="t m0 x8 h7 y59 ff1 fs1 fc0 sc0 ls13 ws0">IF YOU LIV<span class="_ _0"></span>E BI<span class="ls0">-<span class="lsf">CARBONATE, YOU DI</span>-<span class="ls2"> BI</span>-<span class="lsf">CARBONATE</span> <span class="_ _40"> </span><span class="ls12">121</span><span class="ff2 fs0"> </span></span></div><div class="t m0 x8 h7 y5a ff1 fs1 fc0 sc0 lsf ws0">REVERSE COMBUSTION<span class="ls0"> <span class="_ _41"> </span><span class="ls12">123</span><span class="ff2 fs0"> </span></span></div><div class="t m0 x8 h7 y5b ff1 fs1 fc0 sc0 lsf ws0">NUCLEAR + SEAWATER <span class="_ _1"></span><span class="ls0">-<span class="ls15">&gt; JET FUEL?</span> <span class="_ _42"> </span><span class="ls12">124</span><span class="ff2 fs0"> </span></span></div><div class="t m0 x8 h7 y5c ff1 fs1 fc0 sc0 ls13 ws0">I CAN’T BEL<span class="_ _0"></span>IEVE IT’S<span class="_ _0"></span> NOT COA<span class="_ _0"></span>L<span class="ls0"> <span class="_ _37"> </span><span class="ls12">126</span><span class="ff2 fs0"> </span></span></div><div class="t m0 x8 h7 y5d ff1 fs1 fc0 sc0 lse ws0">THE ORIGINAL HANS AND FRANZ:<span class="_ _1"></span> FISCHER<span class="ls0">-</span>TROPSCH<span class="ls0"> <span class="_ _27"> </span><span class="ls12">128</span><span class="ff2 fs0"> </span></span></div><div class="t m0 x8 h7 y5e ff1 fs1 fc0 sc0 ls10 ws0">FILL ‘ER UP WITH BITUMINOUS<span class="ls0"> <span class="_ _43"> </span><span class="ls12">130</span><span class="ff2 fs0"> </span></span></div><div class="t m0 x8 h7 y5f ff1 fs1 fc0 sc0 ls11 ws0">WHY “<span class="_ _1"></span>BLUE <span class="_ _1"></span>STATE<span class="_ _1"></span>S” I<span class="_ _1"></span>S A<span class="_ _1"></span>PR<span class="lsd">OPOS<span class="ls0"> <span class="_ _44"> </span><span class="ls12">132</span><span class="ff2 fs0"> </span></span></span></div><div class="t m0 x8 h7 y60 ff1 fs1 fc0 sc0 ls11 ws0">WATER’<span class="_ _1"></span>S EC<span class="_ _1"></span>ONOMIC<span class="_ _1"></span> IMP<span class="_ _1"></span>ACT<span class="ls0"> <span class="_ _3f"> </span><span class="ls12">134</span><span class="ff2 fs0"> </span></span></div><div class="t m0 x8 h7 y61 ff1 fs1 fc0 sc0 lse ws0">THE PORT OF STOCKTON<span class="ls0"> <span class="_ _45"> </span><span class="ls12">137</span><span class="ff2 fs0"> </span></span></div><div class="t m0 x8 h9 y62 ff1 fs1 fc0 sc0 lsf ws0">YOU’LL NEVER GUES<span class="_ _1"></span>S WHICH POWER SOURCE <span class="_ _1"></span>CONSUMES </div><div class="t m0 x2 h7 y63 ff1 fs1 fc0 sc0 lse ws0">THE MOST WATER<span class="ls0"> <span class="_ _46"> </span><span class="ls12">141</span><span class="ff2 fs0"> </span></span></div><div class="t m0 x8 h9 y64 ff1 fs1 fc0 sc0 lsf ws0">DESALINA<span class="lse">TION<span class="ls0"> <span class="_ _47"> </span><span class="ls12">142</span></span></span></div></div></div><div class="pi" data-data='{"ctm":[2.000000,0.000000,0.000000,2.000000,0.000000,0.000000]}'></div></div>
