<div id="pf86" class="pf w0 h0" data-page-no="86"><div class="pc pc86 w0 h0"><img class="bi x21 y323 w23 h2c" alt="" src="bg86.png"/><div class="c x1 y1 w0 h2"><div class="t m0 x2 h3 y2 ff1 fs0 fc0 sc0 ls0 ws0"> </div><div class="t m0 x2 h4 y3 ff2 fs1 fc0 sc0 lsd ws0">120<span class="ls2">                             FAT G<span class="_ _0"></span>AS, ©20<span class="_ _0"></span>17 MA<span class="_ _0"></span>TT CH<span class="_ _0"></span>ANN<span class="_ _0"></span>ON<span class="ff1 ls0"> </span></span></div><div class="t m0 x2 h5 y132 ff2 fs2 fc0 sc0 ls0 ws0"> </div></div><div class="c x20 y1 w8 h2"><div class="t m0 x4a h7 y324 ff2 fs0 fc0 sc0 ls0 ws0"> </div></div><div class="c x5c y1 w9 h2"><div class="t m0 x4a h7 y324 ff2 fs0 fc0 sc0 ls0 ws0"> </div></div><div class="c x5d y1 wa h2"><div class="t m0 x4d h7 y134 ff2 fs0 fc0 sc0 ls0 ws0"> </div></div><div class="c x1 y1 w0 h2"><div class="t m0 x13c h10 y325 ff7 fs8 fc0 sc0 ls1c ws0">THE CUSHION EFFECT OF SEAWATER<span class="ls0">:<span class="lsd7"> WHY<span class="_ _0"></span> </span></span></div><div class="t m0 x11b h10 y274 ff7 fs8 fc0 sc0 ls1a7 ws0">DON’T FA<span class="ls1c">T PEOPLE LI<span class="_ _1"></span>VE ON ANGRY COASTS?<span class="ls0"> </span></span></div><div class="t m0 x2 h5 y326 ff2 fs2 fc0 sc0 ls0 ws0"> </div><div class="t m0 x2 h5 y327 ff2 fs2 fc0 sc0 ls1e ws0">If <span class="_ _db"> </span>y<span class="_ _0"></span>ou <span class="_ _e4"> </span>travel <span class="_ _db"></span>a <span class="_ _e4"> </span>lot, <span class="_ _db"></span>yo<span class="_ _0"></span>u <span class="_ _e4"> </span>start <span class="_ _db"></span>to <span class="_ _e4"> </span>see <span class="_ _db"></span>how<span class="_ _0"></span> <span class="_ _e4"> </span>people <span class="_ _db"></span>diff<span class="_ _0"></span>er <span class="_ _db"> </span>f<span class="_ _0"></span>rom <span class="_ _e4"> </span>place <span class="_ _db"></span>to <span class="_ _e4"> </span>place.  </div><div class="t m0 x5 h5 y4f ff2 fs2 fc0 sc0 ls4f ws0">Morb<span class="_ _1"></span>idl<span class="_ _1"></span>y <span class="_ _e4"> </span>obes<span class="_ _1"></span>e <span class="_ _e4"> </span>peo<span class="_ _1"></span>ple<span class="_ _1"></span> <span class="_ _e4"> </span>ten<span class="_ _1"></span>d <span class="_ _e4"> </span>to <span class="_ _e4"> </span>li<span class="_ _1"></span>ve <span class="_ _db"> </span>in <span class="_ _e4"> </span>red <span class="_ _e4"> </span>st<span class="_ _1"></span>at<span class="_ _1"></span>es,<span class="_ _1"></span> <span class="_ _e4"> </span>and <span class="_ _e4"> </span>195<span class="_ _1"></span>0’s<span class="_ _1"></span><span class="ls0">-<span class="ls8">standard, <span class="_ _e4"> </span>w<span class="_ _0"></span>aifish </span></span></div><div class="t m0 x5 h5 y328 ff2 fs2 fc0 sc0 ls5 ws0">people <span class="_ _db"></span>live <span class="_ _e4"> </span>in <span class="_ _db"></span>blue <span class="_ _e4"> </span>stat<span class="_ _1"></span>e <span class="_ _e4"> </span>areas.<span class="_ _1"></span> <span class="_ _db"> </span> <span class="_ _e4"> </span>There <span class="_ _e4"> </span>are <span class="_ _db"></span>naturally <span class="_ _db"></span>exceptions, <span class="_ _db"></span>but <span class="_ _db"></span>if <span class="_ _e4"> </span>you <span class="_ _db"></span>visit </div><div class="t m0 x5 h5 y329 ff2 fs2 fc0 sc0 ls23 ws0">coastal <span class="_ _db"> </span>p<span class="_ _0"></span>arts <span class="_ _db"> </span>o<span class="_ _0"></span>f <span class="_ _e4"> </span>California <span class="_ _db"></span>or <span class="_ _e4"> </span>coastal <span class="_ _db"> </span>spo<span class="_ _0"></span>ts <span class="_ _e4"> </span>on <span class="_ _db"></span>the <span class="_ _e4"> </span>east <span class="_ _e4"> </span>coast, <span class="_ _db"></span>people <span class="_ _e4"> </span>tend <span class="_ _e4"> </span>to <span class="_ _db"></span>be </div><div class="t m0 x5 h5 y32a ff2 fs2 fc0 sc0 ls6 ws0">thinner.<span class="ls0"> </span></div><div class="t m0 x2 h5 y85 ff2 fs2 fc0 sc0 ls0 ws0"> </div><div class="t m0 x2 h5 y258 ff2 fs2 fc0 sc0 ls62 ws0">Why <span class="_ _e1"></span>is <span class="_ _0"></span>that<span class="_ _1"></span>? <span class="_ _e1"></span> <span class="_ _d9"></span>Bel<span class="_ _1"></span>iev<span class="_ _1"></span>e <span class="_ _e1"></span>it <span class="_ _e1"></span>or <span class="_ _0"></span>not, <span class="_ _0"></span>the <span class="_ _e1"></span>lea<span class="_ _1"></span>din<span class="_ _1"></span>g <span class="_ _e1"></span>reas<span class="_ _1"></span>on <span class="_ _0"></span>may <span class="_ _e1"></span>simpl<span class="_ _1"></span>y <span class="_ _e1"></span>be <span class="_ _e1"></span>gene<span class="_ _1"></span>ti<span class="_ _1"></span>cs.<span class="_ _1"></span>  </div><div class="t m0 x5 h5 y259 ff2 fs2 fc0 sc0 ls3 ws0">Asian<span class="_ _1"></span>s <span class="_ _0"></span>tend <span class="_ _0"></span>to be <span class="_ _e1"></span>the slimmest<span class="_ _1"></span> <span class="_ _0"></span>Americans<span class="_ _1"></span>, <span class="_ _0"></span>and <span class="_ _0"></span>this<span class="_ _1"></span> <span class="_ _0"></span>is <span class="_ _0"></span>where <span class="_ _0"></span>they’<span class="_ _1"></span>re <span class="_ _0"></span>mos<span class="ls6">t h<span class="_ _0"></span>ighly </span></div><div class="t m0 x5 h5 y25a ff2 fs2 fc0 sc0 ls23 ws0">concentrated. <span class="_ _f6"> </span> <span class="_ _f6"> </span>Blacks <span class="_ _f6"> </span>tend <span class="_ _f0"> </span>to <span class="_ _f3"> </span>be <span class="_ _f0"> </span>the <span class="_ _f6"> </span>heaviest, <span class="_ _f6"> </span>and <span class="_ _f6"> </span>they <span class="_ _f6"> </span>tend <span class="_ _f0"> </span>to <span class="_ _f6"> </span>be </div><div class="t m0 x5 h5 y89 ff2 fs2 fc0 sc0 ls5 ws0">underrepresented <span class="_ _1"></span>closer to t<span class="_ _1"></span>he coast.<span class="ls0"> </span></div><div class="t m0 x2 h5 y25b ff2 fs2 fc0 sc0 ls0 ws0"> </div><div class="t m0 x2 h5 y25c ff2 fs2 fc0 sc0 ls21 ws0">But <span class="_ _e1"></span>what <span class="_ _d9"></span>if <span class="_ _d9"></span>it’s <span class="_ _e1"></span>not <span class="_ _e1"></span>so <span class="_ _d9"></span>much <span class="_ _d9"></span>that <span class="_ _e1"></span>the <span class="_ _d9"></span>character<span class="_ _1"></span>isti<span class="_ _1"></span>cs <span class="_ _e1"></span>of <span class="_ _d9"></span>your <span class="_ _d9"></span>race <span class="_ _e1"></span>determine </div><div class="t m0 x5 h5 y25d ff2 fs2 fc0 sc0 ls5 ws0">how <span class="_ _e4"> </span>portl<span class="_ _1"></span>y <span class="_ _db"> </span>you <span class="_ _e4"> </span>are, <span class="_ _db"></span>but <span class="_ _e4"> </span>that <span class="_ _db"></span>these <span class="_ _db"></span>are <span class="_ _e4"> </span>correla<span class="_ _1"></span>tions <span class="_ _db"></span>from <span class="_ _e4"> </span>a <span class="_ _db"></span>third<span class="ls1cd"> c<span class="_ _e0"></span>a<span class="_ _e3"></span>u<span class="_ _e3"></span>s<span class="_ _e0"></span>e<span class="_ _e3"></span>?<span class="_ _e0"></span>  M<span class="_ _e3"></span>a<span class="_ _e3"></span>y<span class="_ _e3"></span>b<span class="_ _e0"></span>e<span class="_ _e3"></span> </span></div><div class="t m0 x5 h5 y25e ff2 fs2 fc0 sc0 ls3 ws0">Asian<span class="_ _1"></span>s <span class="_ _db"></span>at <span class="_ _d9"></span>large <span class="_ _d9"></span>(or <span class="_ _db"></span>maybe <span class="_ _d9"></span>I <span class="_ _db"></span>should <span class="_ _d9"></span>say <span class="_ _db"></span>at <span class="_ _db"></span>small<span class="_ _1"></span>) <span class="_ _db"></span>just<span class="_ _1"></span> <span class="_ _db"></span>happen <span class="_ _d9"></span>to <span class="_ _db"></span>be <span class="_ _db"></span>thin<span class="_ _1"></span>ner <span class="_ _d9"></span>as <span class="_ _db"></span>a </div><div class="t m0 x5 h5 y25f ff2 fs2 fc0 sc0 ls5 ws0">group because the<span class="_ _1"></span>y’re coastal <span class="_ _1"></span>people.<span class="ls0"> </span></div><div class="t m0 x2 h5 y260 ff2 fs2 fc0 sc0 ls0 ws0"> </div><div class="t m0 x2 h5 y261 ff2 fs2 fc0 sc0 ls21 ws0">But <span class="_ _e4"> </span>there’s <span class="_ _e4"> </span>a <span class="_ _e7"> </span>big <span class="_ _e4"> </span>hole <span class="_ _e7"> </span>in <span class="_ _e7"> </span>this <span class="_ _e4"> </span>theory:<span class="_ _1"></span> <span class="_ _e7"> </span>people <span class="_ _e4"> </span>along <span class="_ _e4"> </span>the <span class="_ _e7"> </span>US <span class="_ _e7"> </span>gulf <span class="_ _e4"> </span>coast <span class="_ _e4"> </span>are </div><div class="t m0 x5 h5 y262 ff2 fs2 fc0 sc0 ls8 ws0">some <span class="_ _d9"></span>of <span class="_ _d9"></span>the <span class="_ _d9"></span>fattest <span class="_ _e1"></span>in <span class="_ _d9"></span>A<span class="_ _0"></span>merica. <span class="_ _d9"></span> <span class="_ _d9"></span>They <span class="_ _d9"></span>also <span class="_ _d9"></span>tend <span class="_ _e1"></span><span class="ls6">to<span class="_ _0"></span> <span class="_ _d9"></span>vote <span class="_ _d9"></span>reliably<span class="_ _0"></span> <span class="_ _d9"></span>in <span class="_ _d9"></span>lockstep<span class="_ _0"></span> <span class="_ _d9"></span>with </span></div><div class="t m0 x5 h5 y263 ff2 fs2 fc0 sc0 ls6 ws0">their higher<span class="_ _0"></span><span class="ls0">-<span class="ls23">altitude fellow conservatives. <span class="_ _1"></span> Doesn’t that sink i<span class="_ _1"></span>t?<span class="ls0"> </span></span></span></div><div class="t m0 x2 h5 y264 ff2 fs2 fc0 sc0 ls0 ws0"> </div><div class="t m0 x2 h5 y265 ff2 fs2 fc0 sc0 ls4 ws0">The word “Pa<span class="_ _1"></span>cific” <span class="_ _1"></span>shares i<span class="_ _1"></span>ts root<span class="_ _1"></span> with t<span class="_ _1"></span>he verb “t<span class="_ _1"></span>o pacif<span class="_ _1"></span>y”.  It<span class="_ _1"></span> means peace<span class="_ _1"></span>, </div><div class="t m0 x5 h5 y266 ff2 fs2 fc0 sc0 ls5 ws0">or <span class="_ _e4"> </span>peaceful. <span class="_ _db"></span> <span class="_ _e4"> </span>Take <span class="_ _e4"> </span>a <span class="_ _e4"> </span>trip <span class="_ _e4"> </span>to <span class="_ _db"> </span>the <span class="_ _e4"> </span><span class="ls0">P<span class="_ _0"></span><span class="ls23">acific <span class="_ _e4"> </span></span>c</span>oast <span class="_ _e4"> </span>and <span class="_ _db"> </span>you <span class="_ _e4"> </span>w<span class="_ _0"></span>ill <span class="_ _db"> </span>find <span class="_ _e4"> </span>it <span class="_ _e4"> </span>anything <span class="_ _e4"> </span>but </div><div class="t m0 x5 h5 y267 ff2 fs2 fc0 sc0 ls5 ws0">peaceful. <span class="_ _e5"> </span> <span class="_ _dc"> </span>It’s <span class="_ _e5"> </span>quite <span class="_ _eb"> </span>possibly <span class="_ _eb"> </span>Earth’s <span class="_ _eb"> </span>angriest <span class="_ _eb"> </span>ocean. <span class="_ _eb"> </span> <span class="_ _eb"> </span>Swim <span class="_ _dc"> </span>warnings <span class="_ _eb"> </span>and </div><div class="t m0 x5 h5 y268 ff2 fs2 fc0 sc0 ls6 ws0">lifeguards <span class="_ _0"></span>ar<span class="_ _0"></span>e in<span class="_ _0"></span> la<span class="_ _0"></span>rger <span class="_ _0"></span>quantitie<span class="_ _0"></span>s.  <span class="_ _0"></span>W<span class="_ _0"></span>hat <span class="_ _0"></span>does <span class="_ _0"></span>this<span class="_ _0"></span> m<span class="_ _0"></span>ean, <span class="_ _0"></span>as <span class="_ _0"></span>com<span class="_ _0"></span>pared <span class="_ _0"></span>to <span class="_ _0"></span>the<span class="_ _0"></span> <span class="_ _0"></span><span class="ls0">G<span class="ls5">ulf</span> </span></div></div></div><div class="pi" data-data='{"ctm":[2.000000,0.000000,0.000000,2.000000,0.000000,0.000000]}'></div></div>
