<div id="pf8e" class="pf w0 h0" data-page-no="8e"><div class="pc pc8e w0 h0"><img class="bi x21 y331 w23 h2c" alt="" src="bg8e.png"/><div class="c x1 y1 w0 h2"><div class="t m0 x2 h3 y2 ff1 fs0 fc0 sc0 ls0 ws0"> </div><div class="t m0 x2 h4 y3 ff2 fs1 fc0 sc0 lsd ws0">128<span class="ls2">                             FAT G<span class="_ _0"></span>AS, ©20<span class="_ _0"></span>17 MA<span class="_ _0"></span>TT CH<span class="_ _0"></span>ANN<span class="_ _0"></span>ON<span class="ff1 ls0"> </span></span></div><div class="t m0 x5 h5 y132 ff2 fs2 fc0 sc0 ls5 ws0">you <span class="_ _0"></span>can <span class="_ _e1"></span>think <span class="_ _0"></span>of <span class="_ _0"></span>another <span class="_ _e1"></span>way <span class="_ _0"></span>to <span class="_ _e1"></span>get <span class="_ _0"></span>rid <span class="_ _0"></span>of <span class="_ _e1"></span>gigatons <span class="_ _0"></span>of <span class="_ _e1"></span>CO</div><div class="t m0 x14f h11 y18c ff2 fs9 fc0 sc0 ls0 ws0">2</div><div class="t m0 x83 h5 y132 ff2 fs2 fc0 sc0 ls1e9 ws0"> f<span class="_ _1"></span>r<span class="_ _da"></span>om<span class="_ _da"></span> t<span class="_ _1"></span>h<span class="_ _1"></span>e<span class="_ _1"></span> a<span class="_ _da"></span>t<span class="_ _1"></span>m<span class="_ _1"></span>o<span class="_ _1"></span>s<span class="_ _da"></span>p<span class="_ _1"></span>h<span class="_ _1"></span>e<span class="_ _da"></span>re<span class="_ _da"></span>,<span class="_ _1"></span> </div><div class="t m0 x5 h5 y133 ff2 fs2 fc0 sc0 ls6 ws0">this is proba<span class="_ _0"></span>bly it.<span class="ls0"> </span></div><div class="t m0 x2 h5 y134 ff2 fs2 fc0 sc0 ls0 ws0"> </div><div class="t m0 x2 h5 y136 ff2 fs2 fc0 sc0 ls0 ws0"> </div></div><div class="c x20 y1 w8 h2"><div class="t m0 x4a h7 y332 ff2 fs0 fc0 sc0 ls0 ws0"> </div></div><div class="c x5c y1 w9 h2"><div class="t m0 x4a h7 y332 ff2 fs0 fc0 sc0 ls0 ws0"> </div></div><div class="c x5d y1 wa h2"><div class="t m0 x4d h7 yd8 ff2 fs0 fc0 sc0 ls0 ws0"> </div></div><div class="c x1 y1 w0 h2"><div class="t m0 x106 h10 y333 ff7 fs8 fc0 sc0 ls1ea ws0">NUCLEAR + <span class="_ _1"></span>SEAWATER <span class="ls0">-<span class="ls1eb">&gt; JE<span class="_ _1"></span>T FUEL?<span class="_ _1"></span><span class="ls0"> </span></span></span></div><div class="t m0 x2 h5 y10 ff2 fs2 fc0 sc0 ls0 ws0"> </div><div class="t m0 x2 h5 y278 ff2 fs2 fc0 sc0 ls21 ws0">Running<span class="ls1ec"> a<span class="_ _6"></span> n<span class="_ _e0"></span>u<span class="_ _df"></span>c<span class="_ _df"></span>l<span class="_ _e0"></span>e<span class="_ _df"></span>a<span class="_ _df"></span>r<span class="_ _e0"></span><span class="ls0">-<span class="ls5">powered <span class="_ _e7"> </span>aircraft <span class="_ _e4"> </span>carrier <span class="_ _e7"> </span>brings <span class="_ _e7"> </span>with <span class="_ _e7"> </span>it <span class="_ _e7"> </span>some <span class="_ _e7"> </span>problems.  </span></span></span></div><div class="t m0 x5 h5 y279 ff2 fs2 fc0 sc0 ls1e ws0">Ideally <span class="_ _e4"> </span>you’d <span class="_ _db"></span>like <span class="_ _e4"> </span>to <span class="_ _db"></span>keep<span class="_ _0"></span> <span class="_ _db"></span>the <span class="_ _e4"> </span>thing <span class="_ _e4"> </span>at <span class="_ _db"></span>sea <span class="_ _e4"> </span>all <span class="_ _db"></span>the <span class="_ _e4"> </span>time, <span class="_ _db"></span>changing<span class="_ _0"></span> <span class="_ _db"></span>ou<span class="_ _0"></span>t <span class="_ _db"></span>crew<span class="_ _0"></span>s <span class="_ _db"></span>via<span class="_ _0"></span> </div><div class="t m0 x5 h5 y27a ff2 fs2 fc0 sc0 ls23 ws0">aircraft, <span class="_ _d9"></span>but <span class="_ _e4"> </span>never <span class="_ _d9"></span>needing <span class="_ _e4"> </span>a <span class="_ _d9"></span>single <span class="_ _db"> </span>supp<span class="_ _0"></span>ly <span class="_ _db"></span>from <span class="_ _db"></span>land. <span class="_ _db"></span> <span class="_ _e4"> </span>During <span class="_ _db"></span>times <span class="_ _db"></span>of <span class="_ _db"></span>disaster </div><div class="t m0 x5 h5 y167 ff2 fs2 fc0 sc0 ls23 ws0">aircraft <span class="_ _2"> </span>carrier  crews <span class="_ _2"> </span>can  <span class="ls5">provide <span class="_ _2"> </span>freshwater <span class="_ _2"> </span>and  electric<span class="_ _1"></span>ity  t<span class="_ _1"></span>o  support<span class="_ _1"></span>  rel<span class="_ _1"></span>ief </span></div><div class="t m0 x5 h5 y168 ff2 fs2 fc0 sc0 ls23 ws0">efforts.  It can’t grow its own food, it can’t make all of its spare parts, and since it </div><div class="t m0 x5 h5 y169 ff2 fs2 fc0 sc0 ls1e ws0">relies on convention<span class="_ _0"></span>al aircraft, it can’t create its own jet fuel.<span class="ls0"> </span></div><div class="t m0 x2 h5 y16a ff2 fs2 fc0 sc0 ls0 ws0"> </div><div class="t m0 x2 h5 y16b ff2 fs2 fc0 sc0 ls3 ws0">You can<span class="_ _1"></span> imagi<span class="_ _1"></span>ne th<span class="_ _1"></span>e dif<span class="_ _1"></span>ficu<span class="_ _1"></span>lty f<span class="_ _1"></span>aced <span class="_ _1"></span>by a na<span class="_ _1"></span>vy<span class="lsa2"> if it<span class="_ _1"></span> loses its s<span class="_ _1"></span>upply lines and </span></div><div class="t m0 x5 h5 yc7 ff2 fs2 fc0 sc0 ls6 ws0">they’re  supply  lines <span class="_ _2"> </span>without  an <span class="_ _2"> </span>easy  replaceme<span class="_ _0"></span>nt.   <span class="_ _5"> </span>Th<span class="_ _0"></span>at’s  why <span class="_ _2"> </span>the  US <span class="_ _2"> </span>navy<span class="_ _0"></span> </div><div class="t m0 x5 h5 y16c ff2 fs2 fc0 sc0 ls5 ws0">undertook a <span class="_ _0"></span>series <span class="_ _0"></span>of <span class="_ _0"></span>research <span class="_ _0"></span>programs <span class="_ _0"></span>to <span class="_ _0"></span>figure out <span class="_ _0"></span>how<span class="_ _0"></span> <span class="_ _0"></span>to <span class="_ _0"></span>make <span class="_ _0"></span>jet <span class="_ _0"></span>fuel out <span class="_ _0"></span>of </div><div class="t m0 x5 h5 y16d ff2 fs2 fc0 sc0 ls8 ws0">seawater.<span class="ls0"> </span></div><div class="t m0 x2 h5 ycb ff2 fs2 fc0 sc0 ls0 ws0"> </div><div class="t m0 x2 h5 ya3 ff2 fs2 fc0 sc0 ls8 ws0">Jet <span class="_ _e4"> </span>fuel <span class="_ _e4"> </span>is <span class="_ _e4"> </span>basically <span class="_ _e4"> </span>kerosene, <span class="_ _e4"> </span>a <span class="_ _e4"> </span>long <span class="_ _e4"> </span>chain <span class="_ _e4"> </span>of <span class="_ _e4"> </span>carbon <span class="_ _e4"> </span><span class="ls38">mole<span class="_ _1"></span>cules<span class="_ _1"></span>, <span class="_ _db"></span>about <span class="_ _db"></span>20 </span></div><div class="t m0 x5 h5 y1e ff2 fs2 fc0 sc0 ls23 ws0">carbons long, <span class="_ _0"></span>each of <span class="_ _0"></span>which is <span class="_ _0"></span>itself bound <span class="_ _0"></span>to two <span class="_ _0"></span>hydrogen <span class="_ _0"></span>molecules each. <span class="_ _0"></span> W<span class="_ _0"></span>e </div><div class="t m0 x5 h5 y16e ff2 fs2 fc0 sc0 ls23 ws0">can <span class="_ _e1"></span>dig <span class="_ _e1"></span>it <span class="_ _e1"></span>out <span class="_ _e1"></span>of <span class="_ _e1"></span>the <span class="_ _e1"></span>ground <span class="_ _e1"></span>easily <span class="_ _e1"></span>enough, <span class="_ _e1"></span>w<span class="_ _0"></span>hether <span class="_ _e1"></span>it’s <span class="_ _0"></span>com<span class="_ _0"></span>ing <span class="_ _e1"></span>from <span class="_ _e1"></span>the <span class="_ _e1"></span>Middle </div><div class="t m0 x5 h5 y16f ff2 fs2 fc0 sc0 ls4 ws0">East, <span class="_ _e7"> </span>Alaska, <span class="_ _5"> </span>or <span class="_ _e7"> </span>U<span class="_ _0"></span>S <span class="_ _5"> </span>gulf <span class="_ _e7"> </span>coast. <span class="_ _5"> </span> <span class="_ _5"> </span>But <span class="_ _e7"> </span>that’s <span class="_ _5"> </span>not <span class="_ _e7"> </span>good <span class="_ _5"> </span>enough <span class="_ _5"> </span>when <span class="_ _5"> </span>you’re<span class="_ _1"></span> <span class="_ _5"> </span>in </div><div class="t m0 x5 h5 y170 ff2 fs2 fc0 sc0 ls0 ws0">h<span class="ls5">ostile <span class="_ _d9"></span>territory, <span class="_ _d9"></span>and <span class="_ _db"></span>even <span class="_ _d9"></span>if <span class="_ _db"></span>your <span class="_ _d9"></span>allies <span class="_ _db"></span>have <span class="_ _d9"></span>plenty <span class="_ _db"></span>of <span class="_ _d9"></span>fuel <span class="_ _db"></span>available <span class="_ _d9"></span>for <span class="_ _d9"></span>you <span class="_ _db"></span>to </span></div><div class="t m0 x5 h5 y171 ff2 fs2 fc0 sc0 ls81 ws0">fill <span class="_ _e1"></span>up<span class="_ _0"></span> <span class="_ _d9"></span>with, <span class="_ _d9"></span>it’d <span class="_ _d9"></span>be <span class="_ _d9"></span>smarter <span class="_ _d9"></span>to <span class="_ _d9"></span>no<span class="_ _0"></span>t <span class="_ _d9"></span>have <span class="_ _d9"></span>to <span class="_ _d9"></span>go <span class="_ _d9"></span>get <span class="_ _d9"></span>it <span class="_ _d9"></span>bu<span class="_ _0"></span>t <span class="_ _e1"></span>m<span class="_ _0"></span>ake <span class="_ _d9"></span>it <span class="_ _d9"></span>out <span class="_ _d9"></span>of <span class="_ _d9"></span>w<span class="_ _0"></span>hat <span class="_ _d9"></span>you </div><div class="t m0 x5 h5 y172 ff2 fs2 fc0 sc0 ls5 ws0">have limitles<span class="_ _1"></span>s supplies of<span class="_ _1"></span>: seawater.<span class="ls0"> </span></div><div class="t m0 x2 h5 y1f1 ff2 fs2 fc0 sc0 ls0 ws0"> </div><div class="t m0 x2 h5 y1f2 ff2 fs2 fc0 sc0 ls59 ws0">Seawater’s hydrogen supply <span class="_ _0"></span>is obvious: <span class="_ _0"></span>seawater is <span class="ls38">mostly water<span class="_ _1"></span>, and water </span></div><div class="t m0 x5 h5 y1f3 ff2 fs2 fc0 sc0 ls6 ws0">is <span class="_ _db"></span>a <span class="_ _e4"> </span>source <span class="_ _e4"> </span>of <span class="_ _db"></span>hydrog<span class="_ _0"></span>en <span class="_ _e4"> </span>without <span class="_ _db"></span>p<span class="_ _0"></span>eer <span class="_ _db"></span>o<span class="_ _0"></span>r <span class="_ _db"></span>equ<span class="_ _0"></span>al. <span class="_ _db"></span> <span class="_ _e4"> </span>The <span class="_ _db"></span>ca<span class="_ _0"></span>rbon, <span class="_ _e4"> </span>on <span class="_ _db"></span>the <span class="_ _e4"> </span>other <span class="_ _db"></span>ha<span class="_ _0"></span>nd, </div><div class="t m0 x5 h5 y1f4 ff2 fs2 fc0 sc0 ls8 ws0">spine of the <span class="_ _0"></span>kerosene <span class="_ _0"></span>molecule, is less <span class="_ _0"></span>obviously a<span class="_ _0"></span>vailable.  W<span class="_ _0"></span>hile taking on<span class="_ _0"></span> pure </div></div></div><div class="pi" data-data='{"ctm":[2.000000,0.000000,0.000000,2.000000,0.000000,0.000000]}'></div></div>
